OPT_V10/Two_days_MCY3_MIQCPM1/powerflow_results_t37.txt
Pandapower Network Debug Info
==================================================

BUS:
       vm_pu  va_degree      p_mw    q_mvar
0   0.998778   0.349292 -0.001527  0.000836
1   0.998090   0.574802 -0.001740  0.002200
2   0.997032   0.734994 -0.000768  0.002476
3   0.997334   0.514587 -0.000749  0.003720
4   0.999915   0.002003  0.006278  0.010078
5   0.999904   0.002140  0.008777  0.009927
6   0.999896   0.002248  0.007992  0.010071
7   0.999951   0.001467  0.000000  0.000000
8   0.999951   0.001472  0.000000  0.000000
9   1.000000   0.000000 -0.018369 -0.044374
10  1.000000   0.000006  0.000000  0.000000
--------------------------------------------------

LINE:
   p_from_mw  q_from_mvar   p_to_mw  q_to_mvar         pl_mw       ql_mvar  i_from_ka   i_to_ka      i_ka  vm_from_pu  va_from_degree  vm_to_pu  va_to_degree  loading_percent
0   0.018359     0.040374 -0.018357  -0.040373  1.924143e-06  1.500286e-06   0.001707  0.001707  0.001707    1.000000        0.000006  0.999951      0.001467         0.742232
1   0.023049     0.030076 -0.023048  -0.030076  1.110419e-06  8.658123e-07   0.001459  0.001459  0.001459    0.999951        0.001467  0.999915      0.002003         0.634154
2  -0.004702     0.009297  0.004752  -0.009257  5.076790e-05  3.958457e-05   0.015038  0.015038  0.015038    0.999951        0.001472  0.998778      0.349292         6.538120
3  -0.016769    -0.019998  0.016769   0.019998  2.355914e-07  1.836945e-07   0.001005  0.001005  0.001005    0.999904        0.002140  0.999915      0.002003         0.436791
4  -0.007992    -0.010071  0.007992   0.010071  8.085520e-08  6.304413e-08   0.000495  0.000495  0.000495    0.999896        0.002248  0.999904      0.002140         0.215174
5   0.002502    -0.004681 -0.002486   0.004694  1.673057e-05  1.304510e-05   0.007676  0.007676  0.007676    0.998090        0.574802  0.998778      0.349292         3.337211
6   0.000749    -0.003720 -0.000740   0.003727  9.664614e-06  7.535659e-06   0.005491  0.005491  0.005491    0.997334        0.514587  0.998778      0.349292         2.387581
7   0.000768    -0.002476 -0.000762   0.002481  6.118375e-06  4.770598e-06   0.003754  0.003754  0.003754    0.997032        0.734994  0.998090      0.574802         1.632085
--------------------------------------------------

TRAFO:
    p_hv_mw  q_hv_mvar   p_lv_mw  q_lv_mvar    pl_mw  ql_mvar   i_hv_ka   i_lv_ka  vm_hv_pu  va_hv_degree  vm_lv_pu  va_lv_degree  loading_percent
0 -0.004692   0.010297  0.004702  -0.009297  0.00001    0.001  0.000436  0.015038  0.999951      0.001467  0.999951      0.001472         0.113155
1  0.018369   0.044374 -0.018359  -0.040374  0.00001    0.004  0.000396  0.001707  1.000000      0.000000  1.000000      0.000006         0.120066
--------------------------------------------------
